src/test/resources/com/rte_france/trm_algorithm/TestCase16Nodes/TestCase16NodesWithoutNetherlandsAndBelgium.uct
##C 2007.05.01
##N
##ZDE
DDE1AA1  DE1          0 2 400.00 3500.00 0.00000 -2500.0 0.00000 5000.00 -5000.0 5000.00 -5000.0
DDE2AA1  DE2          0 2 400.00 3000.00 0.00000 -2000.0 0.00000 5000.00 -5000.0 5000.00 -5000.0
DDE3AA1  DE3          0 2 400.00 2000.00 0.00000 -1500.0 0.00000 5000.00 -5000.0 5000.00 -5000.0
DDE4AA1  DE3          0 2 400.00 1000.00 0.00000 -1500.0 0.00000 5000.00 -5000.0 5000.00 -5000.0
##ZFR
FFR1AA1  FR1          0 2 400.00 1000.00 0.00000 -2000.0 0.00000 5000.00 -5000.0 5000.00 -5000.0
FFR2AA1  FR2          0 2 400.00 3500.00 0.00000 -2000.0 0.00000 5000.00 -5000.0 5000.00 -5000.0
FFR3AA1  FR3          0 2 400.00 1500.00 0.00000 -3000.0 0.00000 5000.00 -5000.0 5000.00 -5000.0
FFR4AA1  FR4          0 2 400.00 2000.00 0.00000 -1000.0 0.00000 5000.00 -5000.0 5000.00 -5000.0
FFR5AA1  FR5          0 2 400.00 1500.00 0.00000 -1500.0 0.00000 5000.00 -5000.0 5000.00 -5000.0
##L
FFR1AA1  FFR2AA1  1 0 0.0000 10.000 0.000000   2000
FFR1AA1  FFR3AA1  1 0 0.0000 10.000 0.000000   2000
FFR1AA1  FFR4AA1  1 0 0.0000 10.000 0.000000   2000
FFR1AA1  FFR5AA1  1 8 0.0000 10.000 0.000000   2000
FFR2AA1  FFR3AA1  1 0 0.0000 10.000 0.000000   2000
FFR2AA1  FFR3AA1  2 0 0.0000 10.000 0.000000   2000
FFR3AA1  FFR5AA1  1 0 0.0000 10.000 0.000000   2000
DDE1AA1  DDE2AA1  1 0 0.0000 10.000 0.000000   2000
DDE1AA1  DDE4AA1  1 0 0.0000 10.000 0.000000   2000
DDE2AA1  DDE3AA1  1 0 0.0000 10.000 0.000000   2000
DDE3AA1  DDE4AA1  1 7 0.0000 0.0050 0.000000   2000
FFR4AA1  DDE1AA1  1 0 0.0000 10.000 0.000000   2000
FFR4AA1  DDE4AA1  1 0 0.0000 10.000 0.000000   2000
FFR2AA1  DDE3AA1  1 0 0.0000 10.000 0.000000   2000
##T
FFR2AA1  FFR4AA1  1 0 400.0 400.0 1000. 0.0000 10.000 0.000000 0.0	     2000 PST
##R
FFR2AA1  FFR4AA1  1                    -0.68 90.00 16   5       SYMM
